&HEAD CHID='fireball' /

!! dx = 0.2
!! MESH IJK=300,240,400, XB=-30.0,30.0,-28.0,20.0,0.0,80.0 /

&MESH ID='1' IJK=60,80,50 XB=-30.0000,-18.0000,-28.0000,-12.0000,0.0000,10.0000 /
&MESH ID='2' IJK=60,80,50 XB=-30.0000,-18.0000,-28.0000,-12.0000,10.0000,20.0000 /
&MESH ID='3' IJK=60,80,50 XB=-30.0000,-18.0000,-28.0000,-12.0000,20.0000,30.0000 /
&MESH ID='4' IJK=60,80,50 XB=-30.0000,-18.0000,-28.0000,-12.0000,30.0000,40.0000 /
&MESH ID='5' IJK=60,80,50 XB=-30.0000,-18.0000,-28.0000,-12.0000,40.0000,50.0000 /
&MESH ID='6' IJK=60,80,50 XB=-30.0000,-18.0000,-28.0000,-12.0000,50.0000,60.0000 /
&MESH ID='7' IJK=60,80,50 XB=-30.0000,-18.0000,-28.0000,-12.0000,60.0000,70.0000 /
&MESH ID='8' IJK=60,80,50 XB=-30.0000,-18.0000,-28.0000,-12.0000,70.0000,80.0000 /
&MESH ID='9' IJK=60,80,50 XB=-30.0000,-18.0000,-12.0000,4.0000,0.0000,10.0000 /
&MESH ID='10' IJK=60,80,50 XB=-30.0000,-18.0000,-12.0000,4.0000,10.0000,20.0000 /
&MESH ID='11' IJK=60,80,50 XB=-30.0000,-18.0000,-12.0000,4.0000,20.0000,30.0000 /
&MESH ID='12' IJK=60,80,50 XB=-30.0000,-18.0000,-12.0000,4.0000,30.0000,40.0000 /
&MESH ID='13' IJK=60,80,50 XB=-30.0000,-18.0000,-12.0000,4.0000,40.0000,50.0000 /
&MESH ID='14' IJK=60,80,50 XB=-30.0000,-18.0000,-12.0000,4.0000,50.0000,60.0000 /
&MESH ID='15' IJK=60,80,50 XB=-30.0000,-18.0000,-12.0000,4.0000,60.0000,70.0000 /
&MESH ID='16' IJK=60,80,50 XB=-30.0000,-18.0000,-12.0000,4.0000,70.0000,80.0000 /
&MESH ID='17' IJK=60,80,50 XB=-30.0000,-18.0000,4.0000,20.0000,0.0000,10.0000 /
&MESH ID='18' IJK=60,80,50 XB=-30.0000,-18.0000,4.0000,20.0000,10.0000,20.0000 /
&MESH ID='19' IJK=60,80,50 XB=-30.0000,-18.0000,4.0000,20.0000,20.0000,30.0000 /
&MESH ID='20' IJK=60,80,50 XB=-30.0000,-18.0000,4.0000,20.0000,30.0000,40.0000 /
&MESH ID='21' IJK=60,80,50 XB=-30.0000,-18.0000,4.0000,20.0000,40.0000,50.0000 /
&MESH ID='22' IJK=60,80,50 XB=-30.0000,-18.0000,4.0000,20.0000,50.0000,60.0000 /
&MESH ID='23' IJK=60,80,50 XB=-30.0000,-18.0000,4.0000,20.0000,60.0000,70.0000 /
&MESH ID='24' IJK=60,80,50 XB=-30.0000,-18.0000,4.0000,20.0000,70.0000,80.0000 /
&MESH ID='25' IJK=60,80,50 XB=-18.0000,-6.0000,-28.0000,-12.0000,0.0000,10.0000 /
&MESH ID='26' IJK=60,80,50 XB=-18.0000,-6.0000,-28.0000,-12.0000,10.0000,20.0000 /
&MESH ID='27' IJK=60,80,50 XB=-18.0000,-6.0000,-28.0000,-12.0000,20.0000,30.0000 /
&MESH ID='28' IJK=60,80,50 XB=-18.0000,-6.0000,-28.0000,-12.0000,30.0000,40.0000 /
&MESH ID='29' IJK=60,80,50 XB=-18.0000,-6.0000,-28.0000,-12.0000,40.0000,50.0000 /
&MESH ID='30' IJK=60,80,50 XB=-18.0000,-6.0000,-28.0000,-12.0000,50.0000,60.0000 /
&MESH ID='31' IJK=60,80,50 XB=-18.0000,-6.0000,-28.0000,-12.0000,60.0000,70.0000 /
&MESH ID='32' IJK=60,80,50 XB=-18.0000,-6.0000,-28.0000,-12.0000,70.0000,80.0000 /
&MESH ID='33' IJK=60,80,50 XB=-18.0000,-6.0000,-12.0000,4.0000,0.0000,10.0000 /
&MESH ID='34' IJK=60,80,50 XB=-18.0000,-6.0000,-12.0000,4.0000,10.0000,20.0000 /
&MESH ID='35' IJK=60,80,50 XB=-18.0000,-6.0000,-12.0000,4.0000,20.0000,30.0000 /
&MESH ID='36' IJK=60,80,50 XB=-18.0000,-6.0000,-12.0000,4.0000,30.0000,40.0000 /
&MESH ID='37' IJK=60,80,50 XB=-18.0000,-6.0000,-12.0000,4.0000,40.0000,50.0000 /
&MESH ID='38' IJK=60,80,50 XB=-18.0000,-6.0000,-12.0000,4.0000,50.0000,60.0000 /
&MESH ID='39' IJK=60,80,50 XB=-18.0000,-6.0000,-12.0000,4.0000,60.0000,70.0000 /
&MESH ID='40' IJK=60,80,50 XB=-18.0000,-6.0000,-12.0000,4.0000,70.0000,80.0000 /
&MESH ID='41' IJK=60,80,50 XB=-18.0000,-6.0000,4.0000,20.0000,0.0000,10.0000 /
&MESH ID='42' IJK=60,80,50 XB=-18.0000,-6.0000,4.0000,20.0000,10.0000,20.0000 /
&MESH ID='43' IJK=60,80,50 XB=-18.0000,-6.0000,4.0000,20.0000,20.0000,30.0000 /
&MESH ID='44' IJK=60,80,50 XB=-18.0000,-6.0000,4.0000,20.0000,30.0000,40.0000 /
&MESH ID='45' IJK=60,80,50 XB=-18.0000,-6.0000,4.0000,20.0000,40.0000,50.0000 /
&MESH ID='46' IJK=60,80,50 XB=-18.0000,-6.0000,4.0000,20.0000,50.0000,60.0000 /
&MESH ID='47' IJK=60,80,50 XB=-18.0000,-6.0000,4.0000,20.0000,60.0000,70.0000 /
&MESH ID='48' IJK=60,80,50 XB=-18.0000,-6.0000,4.0000,20.0000,70.0000,80.0000 /
&MESH ID='49' IJK=60,80,50 XB=-6.0000,6.0000,-28.0000,-12.0000,0.0000,10.0000 /
&MESH ID='50' IJK=60,80,50 XB=-6.0000,6.0000,-28.0000,-12.0000,10.0000,20.0000 /
&MESH ID='51' IJK=60,80,50 XB=-6.0000,6.0000,-28.0000,-12.0000,20.0000,30.0000 /
&MESH ID='52' IJK=60,80,50 XB=-6.0000,6.0000,-28.0000,-12.0000,30.0000,40.0000 /
&MESH ID='53' IJK=60,80,50 XB=-6.0000,6.0000,-28.0000,-12.0000,40.0000,50.0000 /
&MESH ID='54' IJK=60,80,50 XB=-6.0000,6.0000,-28.0000,-12.0000,50.0000,60.0000 /
&MESH ID='55' IJK=60,80,50 XB=-6.0000,6.0000,-28.0000,-12.0000,60.0000,70.0000 /
&MESH ID='56' IJK=60,80,50 XB=-6.0000,6.0000,-28.0000,-12.0000,70.0000,80.0000 /
&MESH ID='57' IJK=60,80,50 XB=-6.0000,6.0000,-12.0000,4.0000,0.0000,10.0000 /
&MESH ID='58' IJK=60,80,50 XB=-6.0000,6.0000,-12.0000,4.0000,10.0000,20.0000 /
&MESH ID='59' IJK=60,80,50 XB=-6.0000,6.0000,-12.0000,4.0000,20.0000,30.0000 /
&MESH ID='60' IJK=60,80,50 XB=-6.0000,6.0000,-12.0000,4.0000,30.0000,40.0000 /
&MESH ID='61' IJK=60,80,50 XB=-6.0000,6.0000,-12.0000,4.0000,40.0000,50.0000 /
&MESH ID='62' IJK=60,80,50 XB=-6.0000,6.0000,-12.0000,4.0000,50.0000,60.0000 /
&MESH ID='63' IJK=60,80,50 XB=-6.0000,6.0000,-12.0000,4.0000,60.0000,70.0000 /
&MESH ID='64' IJK=60,80,50 XB=-6.0000,6.0000,-12.0000,4.0000,70.0000,80.0000 /
&MESH ID='65' IJK=60,80,50 XB=-6.0000,6.0000,4.0000,20.0000,0.0000,10.0000 /
&MESH ID='66' IJK=60,80,50 XB=-6.0000,6.0000,4.0000,20.0000,10.0000,20.0000 /
&MESH ID='67' IJK=60,80,50 XB=-6.0000,6.0000,4.0000,20.0000,20.0000,30.0000 /
&MESH ID='68' IJK=60,80,50 XB=-6.0000,6.0000,4.0000,20.0000,30.0000,40.0000 /
&MESH ID='69' IJK=60,80,50 XB=-6.0000,6.0000,4.0000,20.0000,40.0000,50.0000 /
&MESH ID='70' IJK=60,80,50 XB=-6.0000,6.0000,4.0000,20.0000,50.0000,60.0000 /
&MESH ID='71' IJK=60,80,50 XB=-6.0000,6.0000,4.0000,20.0000,60.0000,70.0000 /
&MESH ID='72' IJK=60,80,50 XB=-6.0000,6.0000,4.0000,20.0000,70.0000,80.0000 /
&MESH ID='73' IJK=60,80,50 XB=6.0000,18.0000,-28.0000,-12.0000,0.0000,10.0000 /
&MESH ID='74' IJK=60,80,50 XB=6.0000,18.0000,-28.0000,-12.0000,10.0000,20.0000 /
&MESH ID='75' IJK=60,80,50 XB=6.0000,18.0000,-28.0000,-12.0000,20.0000,30.0000 /
&MESH ID='76' IJK=60,80,50 XB=6.0000,18.0000,-28.0000,-12.0000,30.0000,40.0000 /
&MESH ID='77' IJK=60,80,50 XB=6.0000,18.0000,-28.0000,-12.0000,40.0000,50.0000 /
&MESH ID='78' IJK=60,80,50 XB=6.0000,18.0000,-28.0000,-12.0000,50.0000,60.0000 /
&MESH ID='79' IJK=60,80,50 XB=6.0000,18.0000,-28.0000,-12.0000,60.0000,70.0000 /
&MESH ID='80' IJK=60,80,50 XB=6.0000,18.0000,-28.0000,-12.0000,70.0000,80.0000 /
&MESH ID='81' IJK=60,80,50 XB=6.0000,18.0000,-12.0000,4.0000,0.0000,10.0000 /
&MESH ID='82' IJK=60,80,50 XB=6.0000,18.0000,-12.0000,4.0000,10.0000,20.0000 /
&MESH ID='83' IJK=60,80,50 XB=6.0000,18.0000,-12.0000,4.0000,20.0000,30.0000 /
&MESH ID='84' IJK=60,80,50 XB=6.0000,18.0000,-12.0000,4.0000,30.0000,40.0000 /
&MESH ID='85' IJK=60,80,50 XB=6.0000,18.0000,-12.0000,4.0000,40.0000,50.0000 /
&MESH ID='86' IJK=60,80,50 XB=6.0000,18.0000,-12.0000,4.0000,50.0000,60.0000 /
&MESH ID='87' IJK=60,80,50 XB=6.0000,18.0000,-12.0000,4.0000,60.0000,70.0000 /
&MESH ID='88' IJK=60,80,50 XB=6.0000,18.0000,-12.0000,4.0000,70.0000,80.0000 /
&MESH ID='89' IJK=60,80,50 XB=6.0000,18.0000,4.0000,20.0000,0.0000,10.0000 /
&MESH ID='90' IJK=60,80,50 XB=6.0000,18.0000,4.0000,20.0000,10.0000,20.0000 /
&MESH ID='91' IJK=60,80,50 XB=6.0000,18.0000,4.0000,20.0000,20.0000,30.0000 /
&MESH ID='92' IJK=60,80,50 XB=6.0000,18.0000,4.0000,20.0000,30.0000,40.0000 /
&MESH ID='93' IJK=60,80,50 XB=6.0000,18.0000,4.0000,20.0000,40.0000,50.0000 /
&MESH ID='94' IJK=60,80,50 XB=6.0000,18.0000,4.0000,20.0000,50.0000,60.0000 /
&MESH ID='95' IJK=60,80,50 XB=6.0000,18.0000,4.0000,20.0000,60.0000,70.0000 /
&MESH ID='96' IJK=60,80,50 XB=6.0000,18.0000,4.0000,20.0000,70.0000,80.0000 /
&MESH ID='97' IJK=60,80,50 XB=18.0000,30.0000,-28.0000,-12.0000,0.0000,10.0000 /
&MESH ID='98' IJK=60,80,50 XB=18.0000,30.0000,-28.0000,-12.0000,10.0000,20.0000 /
&MESH ID='99' IJK=60,80,50 XB=18.0000,30.0000,-28.0000,-12.0000,20.0000,30.0000 /
&MESH ID='100' IJK=60,80,50 XB=18.0000,30.0000,-28.0000,-12.0000,30.0000,40.0000 /
&MESH ID='101' IJK=60,80,50 XB=18.0000,30.0000,-28.0000,-12.0000,40.0000,50.0000 /
&MESH ID='102' IJK=60,80,50 XB=18.0000,30.0000,-28.0000,-12.0000,50.0000,60.0000 /
&MESH ID='103' IJK=60,80,50 XB=18.0000,30.0000,-28.0000,-12.0000,60.0000,70.0000 /
&MESH ID='104' IJK=60,80,50 XB=18.0000,30.0000,-28.0000,-12.0000,70.0000,80.0000 /
&MESH ID='105' IJK=60,80,50 XB=18.0000,30.0000,-12.0000,4.0000,0.0000,10.0000 /
&MESH ID='106' IJK=60,80,50 XB=18.0000,30.0000,-12.0000,4.0000,10.0000,20.0000 /
&MESH ID='107' IJK=60,80,50 XB=18.0000,30.0000,-12.0000,4.0000,20.0000,30.0000 /
&MESH ID='108' IJK=60,80,50 XB=18.0000,30.0000,-12.0000,4.0000,30.0000,40.0000 /
&MESH ID='109' IJK=60,80,50 XB=18.0000,30.0000,-12.0000,4.0000,40.0000,50.0000 /
&MESH ID='110' IJK=60,80,50 XB=18.0000,30.0000,-12.0000,4.0000,50.0000,60.0000 /
&MESH ID='111' IJK=60,80,50 XB=18.0000,30.0000,-12.0000,4.0000,60.0000,70.0000 /
&MESH ID='112' IJK=60,80,50 XB=18.0000,30.0000,-12.0000,4.0000,70.0000,80.0000 /
&MESH ID='113' IJK=60,80,50 XB=18.0000,30.0000,4.0000,20.0000,0.0000,10.0000 /
&MESH ID='114' IJK=60,80,50 XB=18.0000,30.0000,4.0000,20.0000,10.0000,20.0000 /
&MESH ID='115' IJK=60,80,50 XB=18.0000,30.0000,4.0000,20.0000,20.0000,30.0000 /
&MESH ID='116' IJK=60,80,50 XB=18.0000,30.0000,4.0000,20.0000,30.0000,40.0000 /
&MESH ID='117' IJK=60,80,50 XB=18.0000,30.0000,4.0000,20.0000,40.0000,50.0000 /
&MESH ID='118' IJK=60,80,50 XB=18.0000,30.0000,4.0000,20.0000,50.0000,60.0000 /
&MESH ID='119' IJK=60,80,50 XB=18.0000,30.0000,4.0000,20.0000,60.0000,70.0000 /
&MESH ID='120' IJK=60,80,50 XB=18.0000,30.0000,4.0000,20.0000,70.0000,80.0000 /

&TIME T_END=6.0, DT=0.01 /

&MISC PARTICLE_CFL=.TRUE., POROUS_FLOOR=.FALSE./

&DUMP NFRAMES = 10000 /

&REAC FUEL='N-HEPTANE'
      CO_YIELD=0.0
      SOOT_H_FRACTION=0.1
      SOOT_YIELD=0.015 /


&MATL ID='BETON ', CONDUCTIVITY =1.8 , DENSITY =2280 , SPECIFIC_HEAT =1.04 /
&SURF ID='BETONWAND ', MATL_ID ='BETON ', THICKNESS =0.20 , COLOR ='GRAY' /

&SPEC ID='WATER VAPOR'/

&PART ID='water droplets', SPEC_ID='WATER VAPOR', 
      QUANTITIES(1:7)='PARTICLE DIAMETER', 'PARTICLE MASS', 'PARTICLE TEMPERATURE', 'PARTICLE U', 'PARTICLE V', 'PARTICLE W', 'PARTICLE WEIGHTING FACTOR',
      DIAMETER=100., SAMPLING_FACTOR=1 /

&PART ID='heptane droplets',SPEC_ID='N-HEPTANE',
      QUANTITIES(1:7)='PARTICLE DIAMETER', 'PARTICLE MASS', 'PARTICLE TEMPERATURE', 'PARTICLE U', 'PARTICLE V', 'PARTICLE W', 'PARTICLE WEIGHTING FACTOR',
      DIAMETER=100.,HEAT_OF_COMBUSTION=44500.,SAMPLING_FACTOR=1 /

&PART ID='tracer', MASSLESS=.TRUE., 
      QUANTITIES(1:7)='PARTICLE DIAMETER', 'PARTICLE MASS', 'PARTICLE TEMPERATURE', 'PARTICLE U', 'PARTICLE V', 'PARTICLE W', 'PARTICLE WEIGHTING FACTOR', 
      DIAMETER=100., SAMPLING_FACTOR=1 /

&INIT PART_ID='tracer', XB=-1.5,1.5,-0.3,-0.1,13.5,16.5, N_PARTICLES=50000 /

&PROP ID='nozzle', PART_ID='heptane droplets', PARTICLES_PER_SECOND=5000000, MASS_FLOW_RATE=40000.0, DROPLET_VELOCITY=250., SPRAY_ANGLE=70.,90., OFFSET=0.25 /

&DEVC ID='nozzle_1', XYZ=0.0,-0.1,15.0, PROP_ID='nozzle', QUANTITY='CONTROL', CTRL_ID='controller_1', LATCH=.FALSE., ORIENTATION=0,-1,0,/
&DEVC XYZ=0.0,-0.1,15.0, ID='clock 1', QUANTITY='TIME' /

&CTRL ID='controller_1', FUNCTION_TYPE='CUSTOM', INPUT_ID='clock 1', RAMP_ID='ramp 1', LATCH=.FALSE. /
&RAMP ID='ramp 1', T= 0.00, F= 1. /
&RAMP ID='ramp 1', T= 0.019, F= 1. /
&RAMP ID='ramp 1', T= 0.021, F=-1. /

&OBST XB= -10,10,0.0,10.0,0.0,40.0, SURF_ID='BETONWAND' /
&OBST XB= -30.,30.,-28.,20.,0.,0.2, COLOR='SILVER' /


&VENT MB='XMIN', SURF_ID='OPEN' /
&VENT MB='XMAX', SURF_ID='OPEN' /
&VENT MB='YMIN', SURF_ID='OPEN' /
&VENT MB='YMAX', SURF_ID='OPEN' /
&VENT MB='ZMAX', SURF_ID='OPEN' /

&SLCF PBY=-0.2, QUANTITY='TEMPERATURE' /
&SLCF PBX=0.0, QUANTITY='TEMPERATURE' /

&SLCF PBY=-0.2, QUANTITY='VELOCITY', VECTOR=.TRUE./
&SLCF PBX=0.0, QUANTITY='VELOCITY', VECTOR=.TRUE. /

&BNDF QUANTITY='WALL TEMPERATURE' /
&BNDF QUANTITY='NET HEAT FLUX' /

&TAIL /


