&HEAD CHID='fireball' TITLE='fireball'/

!! dx = 0.2

!! raw input mesh: MESH IJK=648,360,864, XB=-64.8,64.8,-52.0,20.0,0.0,172.8 /
!! raw input decomposition: 9,4,16
!! i: 648, j: 360, k: 864
!! x: -64.8,64.8
!! y: -52.0,20.0
!! z: 0.0,172.8
!! decomposition: 9, 4, 16
!! lx: 129.6, dx: 14.399999999999999, di: 72
!! ly: 72.0000, dy: 18.0000, dj: 90
!! lz: 172.8000, dz: 10.8000, dk: 54
!! resulting number of meshes: 576
!! ===========================
&MESH ID='1' IJK=72,90,54 XB=-64.8000,-50.4000,-52.0000,-34.0000,0.0000,10.8000 /
&MESH ID='2' IJK=72,90,54 XB=-64.8000,-50.4000,-52.0000,-34.0000,10.8000,21.6000 /
&MESH ID='3' IJK=72,90,54 XB=-64.8000,-50.4000,-52.0000,-34.0000,21.6000,32.4000 /
&MESH ID='4' IJK=72,90,54 XB=-64.8000,-50.4000,-52.0000,-34.0000,32.4000,43.2000 /
&MESH ID='5' IJK=72,90,54 XB=-64.8000,-50.4000,-52.0000,-34.0000,43.2000,54.0000 /
&MESH ID='6' IJK=72,90,54 XB=-64.8000,-50.4000,-52.0000,-34.0000,54.0000,64.8000 /
&MESH ID='7' IJK=72,90,54 XB=-64.8000,-50.4000,-52.0000,-34.0000,64.8000,75.6000 /
&MESH ID='8' IJK=72,90,54 XB=-64.8000,-50.4000,-52.0000,-34.0000,75.6000,86.4000 /
&MESH ID='9' IJK=72,90,54 XB=-64.8000,-50.4000,-52.0000,-34.0000,86.4000,97.2000 /
&MESH ID='10' IJK=72,90,54 XB=-64.8000,-50.4000,-52.0000,-34.0000,97.2000,108.0000 /
&MESH ID='11' IJK=72,90,54 XB=-64.8000,-50.4000,-52.0000,-34.0000,108.0000,118.8000 /
&MESH ID='12' IJK=72,90,54 XB=-64.8000,-50.4000,-52.0000,-34.0000,118.8000,129.6000 /
&MESH ID='13' IJK=72,90,54 XB=-64.8000,-50.4000,-52.0000,-34.0000,129.6000,140.4000 /
&MESH ID='14' IJK=72,90,54 XB=-64.8000,-50.4000,-52.0000,-34.0000,140.4000,151.2000 /
&MESH ID='15' IJK=72,90,54 XB=-64.8000,-50.4000,-52.0000,-34.0000,151.2000,162.0000 /
&MESH ID='16' IJK=72,90,54 XB=-64.8000,-50.4000,-52.0000,-34.0000,162.0000,172.8000 /
&MESH ID='17' IJK=72,90,54 XB=-64.8000,-50.4000,-34.0000,-16.0000,0.0000,10.8000 /
&MESH ID='18' IJK=72,90,54 XB=-64.8000,-50.4000,-34.0000,-16.0000,10.8000,21.6000 /
&MESH ID='19' IJK=72,90,54 XB=-64.8000,-50.4000,-34.0000,-16.0000,21.6000,32.4000 /
&MESH ID='20' IJK=72,90,54 XB=-64.8000,-50.4000,-34.0000,-16.0000,32.4000,43.2000 /
&MESH ID='21' IJK=72,90,54 XB=-64.8000,-50.4000,-34.0000,-16.0000,43.2000,54.0000 /
&MESH ID='22' IJK=72,90,54 XB=-64.8000,-50.4000,-34.0000,-16.0000,54.0000,64.8000 /
&MESH ID='23' IJK=72,90,54 XB=-64.8000,-50.4000,-34.0000,-16.0000,64.8000,75.6000 /
&MESH ID='24' IJK=72,90,54 XB=-64.8000,-50.4000,-34.0000,-16.0000,75.6000,86.4000 /
&MESH ID='25' IJK=72,90,54 XB=-64.8000,-50.4000,-34.0000,-16.0000,86.4000,97.2000 /
&MESH ID='26' IJK=72,90,54 XB=-64.8000,-50.4000,-34.0000,-16.0000,97.2000,108.0000 /
&MESH ID='27' IJK=72,90,54 XB=-64.8000,-50.4000,-34.0000,-16.0000,108.0000,118.8000 /
&MESH ID='28' IJK=72,90,54 XB=-64.8000,-50.4000,-34.0000,-16.0000,118.8000,129.6000 /
&MESH ID='29' IJK=72,90,54 XB=-64.8000,-50.4000,-34.0000,-16.0000,129.6000,140.4000 /
&MESH ID='30' IJK=72,90,54 XB=-64.8000,-50.4000,-34.0000,-16.0000,140.4000,151.2000 /
&MESH ID='31' IJK=72,90,54 XB=-64.8000,-50.4000,-34.0000,-16.0000,151.2000,162.0000 /
&MESH ID='32' IJK=72,90,54 XB=-64.8000,-50.4000,-34.0000,-16.0000,162.0000,172.8000 /
&MESH ID='33' IJK=72,90,54 XB=-64.8000,-50.4000,-16.0000,2.0000,0.0000,10.8000 /
&MESH ID='34' IJK=72,90,54 XB=-64.8000,-50.4000,-16.0000,2.0000,10.8000,21.6000 /
&MESH ID='35' IJK=72,90,54 XB=-64.8000,-50.4000,-16.0000,2.0000,21.6000,32.4000 /
&MESH ID='36' IJK=72,90,54 XB=-64.8000,-50.4000,-16.0000,2.0000,32.4000,43.2000 /
&MESH ID='37' IJK=72,90,54 XB=-64.8000,-50.4000,-16.0000,2.0000,43.2000,54.0000 /
&MESH ID='38' IJK=72,90,54 XB=-64.8000,-50.4000,-16.0000,2.0000,54.0000,64.8000 /
&MESH ID='39' IJK=72,90,54 XB=-64.8000,-50.4000,-16.0000,2.0000,64.8000,75.6000 /
&MESH ID='40' IJK=72,90,54 XB=-64.8000,-50.4000,-16.0000,2.0000,75.6000,86.4000 /
&MESH ID='41' IJK=72,90,54 XB=-64.8000,-50.4000,-16.0000,2.0000,86.4000,97.2000 /
&MESH ID='42' IJK=72,90,54 XB=-64.8000,-50.4000,-16.0000,2.0000,97.2000,108.0000 /
&MESH ID='43' IJK=72,90,54 XB=-64.8000,-50.4000,-16.0000,2.0000,108.0000,118.8000 /
&MESH ID='44' IJK=72,90,54 XB=-64.8000,-50.4000,-16.0000,2.0000,118.8000,129.6000 /
&MESH ID='45' IJK=72,90,54 XB=-64.8000,-50.4000,-16.0000,2.0000,129.6000,140.4000 /
&MESH ID='46' IJK=72,90,54 XB=-64.8000,-50.4000,-16.0000,2.0000,140.4000,151.2000 /
&MESH ID='47' IJK=72,90,54 XB=-64.8000,-50.4000,-16.0000,2.0000,151.2000,162.0000 /
&MESH ID='48' IJK=72,90,54 XB=-64.8000,-50.4000,-16.0000,2.0000,162.0000,172.8000 /
&MESH ID='49' IJK=72,90,54 XB=-64.8000,-50.4000,2.0000,20.0000,0.0000,10.8000 /
&MESH ID='50' IJK=72,90,54 XB=-64.8000,-50.4000,2.0000,20.0000,10.8000,21.6000 /
&MESH ID='51' IJK=72,90,54 XB=-64.8000,-50.4000,2.0000,20.0000,21.6000,32.4000 /
&MESH ID='52' IJK=72,90,54 XB=-64.8000,-50.4000,2.0000,20.0000,32.4000,43.2000 /
&MESH ID='53' IJK=72,90,54 XB=-64.8000,-50.4000,2.0000,20.0000,43.2000,54.0000 /
&MESH ID='54' IJK=72,90,54 XB=-64.8000,-50.4000,2.0000,20.0000,54.0000,64.8000 /
&MESH ID='55' IJK=72,90,54 XB=-64.8000,-50.4000,2.0000,20.0000,64.8000,75.6000 /
&MESH ID='56' IJK=72,90,54 XB=-64.8000,-50.4000,2.0000,20.0000,75.6000,86.4000 /
&MESH ID='57' IJK=72,90,54 XB=-64.8000,-50.4000,2.0000,20.0000,86.4000,97.2000 /
&MESH ID='58' IJK=72,90,54 XB=-64.8000,-50.4000,2.0000,20.0000,97.2000,108.0000 /
&MESH ID='59' IJK=72,90,54 XB=-64.8000,-50.4000,2.0000,20.0000,108.0000,118.8000 /
&MESH ID='60' IJK=72,90,54 XB=-64.8000,-50.4000,2.0000,20.0000,118.8000,129.6000 /
&MESH ID='61' IJK=72,90,54 XB=-64.8000,-50.4000,2.0000,20.0000,129.6000,140.4000 /
&MESH ID='62' IJK=72,90,54 XB=-64.8000,-50.4000,2.0000,20.0000,140.4000,151.2000 /
&MESH ID='63' IJK=72,90,54 XB=-64.8000,-50.4000,2.0000,20.0000,151.2000,162.0000 /
&MESH ID='64' IJK=72,90,54 XB=-64.8000,-50.4000,2.0000,20.0000,162.0000,172.8000 /
&MESH ID='65' IJK=72,90,54 XB=-50.4000,-36.0000,-52.0000,-34.0000,0.0000,10.8000 /
&MESH ID='66' IJK=72,90,54 XB=-50.4000,-36.0000,-52.0000,-34.0000,10.8000,21.6000 /
&MESH ID='67' IJK=72,90,54 XB=-50.4000,-36.0000,-52.0000,-34.0000,21.6000,32.4000 /
&MESH ID='68' IJK=72,90,54 XB=-50.4000,-36.0000,-52.0000,-34.0000,32.4000,43.2000 /
&MESH ID='69' IJK=72,90,54 XB=-50.4000,-36.0000,-52.0000,-34.0000,43.2000,54.0000 /
&MESH ID='70' IJK=72,90,54 XB=-50.4000,-36.0000,-52.0000,-34.0000,54.0000,64.8000 /
&MESH ID='71' IJK=72,90,54 XB=-50.4000,-36.0000,-52.0000,-34.0000,64.8000,75.6000 /
&MESH ID='72' IJK=72,90,54 XB=-50.4000,-36.0000,-52.0000,-34.0000,75.6000,86.4000 /
&MESH ID='73' IJK=72,90,54 XB=-50.4000,-36.0000,-52.0000,-34.0000,86.4000,97.2000 /
&MESH ID='74' IJK=72,90,54 XB=-50.4000,-36.0000,-52.0000,-34.0000,97.2000,108.0000 /
&MESH ID='75' IJK=72,90,54 XB=-50.4000,-36.0000,-52.0000,-34.0000,108.0000,118.8000 /
&MESH ID='76' IJK=72,90,54 XB=-50.4000,-36.0000,-52.0000,-34.0000,118.8000,129.6000 /
&MESH ID='77' IJK=72,90,54 XB=-50.4000,-36.0000,-52.0000,-34.0000,129.6000,140.4000 /
&MESH ID='78' IJK=72,90,54 XB=-50.4000,-36.0000,-52.0000,-34.0000,140.4000,151.2000 /
&MESH ID='79' IJK=72,90,54 XB=-50.4000,-36.0000,-52.0000,-34.0000,151.2000,162.0000 /
&MESH ID='80' IJK=72,90,54 XB=-50.4000,-36.0000,-52.0000,-34.0000,162.0000,172.8000 /
&MESH ID='81' IJK=72,90,54 XB=-50.4000,-36.0000,-34.0000,-16.0000,0.0000,10.8000 /
&MESH ID='82' IJK=72,90,54 XB=-50.4000,-36.0000,-34.0000,-16.0000,10.8000,21.6000 /
&MESH ID='83' IJK=72,90,54 XB=-50.4000,-36.0000,-34.0000,-16.0000,21.6000,32.4000 /
&MESH ID='84' IJK=72,90,54 XB=-50.4000,-36.0000,-34.0000,-16.0000,32.4000,43.2000 /
&MESH ID='85' IJK=72,90,54 XB=-50.4000,-36.0000,-34.0000,-16.0000,43.2000,54.0000 /
&MESH ID='86' IJK=72,90,54 XB=-50.4000,-36.0000,-34.0000,-16.0000,54.0000,64.8000 /
&MESH ID='87' IJK=72,90,54 XB=-50.4000,-36.0000,-34.0000,-16.0000,64.8000,75.6000 /
&MESH ID='88' IJK=72,90,54 XB=-50.4000,-36.0000,-34.0000,-16.0000,75.6000,86.4000 /
&MESH ID='89' IJK=72,90,54 XB=-50.4000,-36.0000,-34.0000,-16.0000,86.4000,97.2000 /
&MESH ID='90' IJK=72,90,54 XB=-50.4000,-36.0000,-34.0000,-16.0000,97.2000,108.0000 /
&MESH ID='91' IJK=72,90,54 XB=-50.4000,-36.0000,-34.0000,-16.0000,108.0000,118.8000 /
&MESH ID='92' IJK=72,90,54 XB=-50.4000,-36.0000,-34.0000,-16.0000,118.8000,129.6000 /
&MESH ID='93' IJK=72,90,54 XB=-50.4000,-36.0000,-34.0000,-16.0000,129.6000,140.4000 /
&MESH ID='94' IJK=72,90,54 XB=-50.4000,-36.0000,-34.0000,-16.0000,140.4000,151.2000 /
&MESH ID='95' IJK=72,90,54 XB=-50.4000,-36.0000,-34.0000,-16.0000,151.2000,162.0000 /
&MESH ID='96' IJK=72,90,54 XB=-50.4000,-36.0000,-34.0000,-16.0000,162.0000,172.8000 /
&MESH ID='97' IJK=72,90,54 XB=-50.4000,-36.0000,-16.0000,2.0000,0.0000,10.8000 /
&MESH ID='98' IJK=72,90,54 XB=-50.4000,-36.0000,-16.0000,2.0000,10.8000,21.6000 /
&MESH ID='99' IJK=72,90,54 XB=-50.4000,-36.0000,-16.0000,2.0000,21.6000,32.4000 /
&MESH ID='100' IJK=72,90,54 XB=-50.4000,-36.0000,-16.0000,2.0000,32.4000,43.2000 /
&MESH ID='101' IJK=72,90,54 XB=-50.4000,-36.0000,-16.0000,2.0000,43.2000,54.0000 /
&MESH ID='102' IJK=72,90,54 XB=-50.4000,-36.0000,-16.0000,2.0000,54.0000,64.8000 /
&MESH ID='103' IJK=72,90,54 XB=-50.4000,-36.0000,-16.0000,2.0000,64.8000,75.6000 /
&MESH ID='104' IJK=72,90,54 XB=-50.4000,-36.0000,-16.0000,2.0000,75.6000,86.4000 /
&MESH ID='105' IJK=72,90,54 XB=-50.4000,-36.0000,-16.0000,2.0000,86.4000,97.2000 /
&MESH ID='106' IJK=72,90,54 XB=-50.4000,-36.0000,-16.0000,2.0000,97.2000,108.0000 /
&MESH ID='107' IJK=72,90,54 XB=-50.4000,-36.0000,-16.0000,2.0000,108.0000,118.8000 /
&MESH ID='108' IJK=72,90,54 XB=-50.4000,-36.0000,-16.0000,2.0000,118.8000,129.6000 /
&MESH ID='109' IJK=72,90,54 XB=-50.4000,-36.0000,-16.0000,2.0000,129.6000,140.4000 /
&MESH ID='110' IJK=72,90,54 XB=-50.4000,-36.0000,-16.0000,2.0000,140.4000,151.2000 /
&MESH ID='111' IJK=72,90,54 XB=-50.4000,-36.0000,-16.0000,2.0000,151.2000,162.0000 /
&MESH ID='112' IJK=72,90,54 XB=-50.4000,-36.0000,-16.0000,2.0000,162.0000,172.8000 /
&MESH ID='113' IJK=72,90,54 XB=-50.4000,-36.0000,2.0000,20.0000,0.0000,10.8000 /
&MESH ID='114' IJK=72,90,54 XB=-50.4000,-36.0000,2.0000,20.0000,10.8000,21.6000 /
&MESH ID='115' IJK=72,90,54 XB=-50.4000,-36.0000,2.0000,20.0000,21.6000,32.4000 /
&MESH ID='116' IJK=72,90,54 XB=-50.4000,-36.0000,2.0000,20.0000,32.4000,43.2000 /
&MESH ID='117' IJK=72,90,54 XB=-50.4000,-36.0000,2.0000,20.0000,43.2000,54.0000 /
&MESH ID='118' IJK=72,90,54 XB=-50.4000,-36.0000,2.0000,20.0000,54.0000,64.8000 /
&MESH ID='119' IJK=72,90,54 XB=-50.4000,-36.0000,2.0000,20.0000,64.8000,75.6000 /
&MESH ID='120' IJK=72,90,54 XB=-50.4000,-36.0000,2.0000,20.0000,75.6000,86.4000 /
&MESH ID='121' IJK=72,90,54 XB=-50.4000,-36.0000,2.0000,20.0000,86.4000,97.2000 /
&MESH ID='122' IJK=72,90,54 XB=-50.4000,-36.0000,2.0000,20.0000,97.2000,108.0000 /
&MESH ID='123' IJK=72,90,54 XB=-50.4000,-36.0000,2.0000,20.0000,108.0000,118.8000 /
&MESH ID='124' IJK=72,90,54 XB=-50.4000,-36.0000,2.0000,20.0000,118.8000,129.6000 /
&MESH ID='125' IJK=72,90,54 XB=-50.4000,-36.0000,2.0000,20.0000,129.6000,140.4000 /
&MESH ID='126' IJK=72,90,54 XB=-50.4000,-36.0000,2.0000,20.0000,140.4000,151.2000 /
&MESH ID='127' IJK=72,90,54 XB=-50.4000,-36.0000,2.0000,20.0000,151.2000,162.0000 /
&MESH ID='128' IJK=72,90,54 XB=-50.4000,-36.0000,2.0000,20.0000,162.0000,172.8000 /
&MESH ID='129' IJK=72,90,54 XB=-36.0000,-21.6000,-52.0000,-34.0000,0.0000,10.8000 /
&MESH ID='130' IJK=72,90,54 XB=-36.0000,-21.6000,-52.0000,-34.0000,10.8000,21.6000 /
&MESH ID='131' IJK=72,90,54 XB=-36.0000,-21.6000,-52.0000,-34.0000,21.6000,32.4000 /
&MESH ID='132' IJK=72,90,54 XB=-36.0000,-21.6000,-52.0000,-34.0000,32.4000,43.2000 /
&MESH ID='133' IJK=72,90,54 XB=-36.0000,-21.6000,-52.0000,-34.0000,43.2000,54.0000 /
&MESH ID='134' IJK=72,90,54 XB=-36.0000,-21.6000,-52.0000,-34.0000,54.0000,64.8000 /
&MESH ID='135' IJK=72,90,54 XB=-36.0000,-21.6000,-52.0000,-34.0000,64.8000,75.6000 /
&MESH ID='136' IJK=72,90,54 XB=-36.0000,-21.6000,-52.0000,-34.0000,75.6000,86.4000 /
&MESH ID='137' IJK=72,90,54 XB=-36.0000,-21.6000,-52.0000,-34.0000,86.4000,97.2000 /
&MESH ID='138' IJK=72,90,54 XB=-36.0000,-21.6000,-52.0000,-34.0000,97.2000,108.0000 /
&MESH ID='139' IJK=72,90,54 XB=-36.0000,-21.6000,-52.0000,-34.0000,108.0000,118.8000 /
&MESH ID='140' IJK=72,90,54 XB=-36.0000,-21.6000,-52.0000,-34.0000,118.8000,129.6000 /
&MESH ID='141' IJK=72,90,54 XB=-36.0000,-21.6000,-52.0000,-34.0000,129.6000,140.4000 /
&MESH ID='142' IJK=72,90,54 XB=-36.0000,-21.6000,-52.0000,-34.0000,140.4000,151.2000 /
&MESH ID='143' IJK=72,90,54 XB=-36.0000,-21.6000,-52.0000,-34.0000,151.2000,162.0000 /
&MESH ID='144' IJK=72,90,54 XB=-36.0000,-21.6000,-52.0000,-34.0000,162.0000,172.8000 /
&MESH ID='145' IJK=72,90,54 XB=-36.0000,-21.6000,-34.0000,-16.0000,0.0000,10.8000 /
&MESH ID='146' IJK=72,90,54 XB=-36.0000,-21.6000,-34.0000,-16.0000,10.8000,21.6000 /
&MESH ID='147' IJK=72,90,54 XB=-36.0000,-21.6000,-34.0000,-16.0000,21.6000,32.4000 /
&MESH ID='148' IJK=72,90,54 XB=-36.0000,-21.6000,-34.0000,-16.0000,32.4000,43.2000 /
&MESH ID='149' IJK=72,90,54 XB=-36.0000,-21.6000,-34.0000,-16.0000,43.2000,54.0000 /
&MESH ID='150' IJK=72,90,54 XB=-36.0000,-21.6000,-34.0000,-16.0000,54.0000,64.8000 /
&MESH ID='151' IJK=72,90,54 XB=-36.0000,-21.6000,-34.0000,-16.0000,64.8000,75.6000 /
&MESH ID='152' IJK=72,90,54 XB=-36.0000,-21.6000,-34.0000,-16.0000,75.6000,86.4000 /
&MESH ID='153' IJK=72,90,54 XB=-36.0000,-21.6000,-34.0000,-16.0000,86.4000,97.2000 /
&MESH ID='154' IJK=72,90,54 XB=-36.0000,-21.6000,-34.0000,-16.0000,97.2000,108.0000 /
&MESH ID='155' IJK=72,90,54 XB=-36.0000,-21.6000,-34.0000,-16.0000,108.0000,118.8000 /
&MESH ID='156' IJK=72,90,54 XB=-36.0000,-21.6000,-34.0000,-16.0000,118.8000,129.6000 /
&MESH ID='157' IJK=72,90,54 XB=-36.0000,-21.6000,-34.0000,-16.0000,129.6000,140.4000 /
&MESH ID='158' IJK=72,90,54 XB=-36.0000,-21.6000,-34.0000,-16.0000,140.4000,151.2000 /
&MESH ID='159' IJK=72,90,54 XB=-36.0000,-21.6000,-34.0000,-16.0000,151.2000,162.0000 /
&MESH ID='160' IJK=72,90,54 XB=-36.0000,-21.6000,-34.0000,-16.0000,162.0000,172.8000 /
&MESH ID='161' IJK=72,90,54 XB=-36.0000,-21.6000,-16.0000,2.0000,0.0000,10.8000 /
&MESH ID='162' IJK=72,90,54 XB=-36.0000,-21.6000,-16.0000,2.0000,10.8000,21.6000 /
&MESH ID='163' IJK=72,90,54 XB=-36.0000,-21.6000,-16.0000,2.0000,21.6000,32.4000 /
&MESH ID='164' IJK=72,90,54 XB=-36.0000,-21.6000,-16.0000,2.0000,32.4000,43.2000 /
&MESH ID='165' IJK=72,90,54 XB=-36.0000,-21.6000,-16.0000,2.0000,43.2000,54.0000 /
&MESH ID='166' IJK=72,90,54 XB=-36.0000,-21.6000,-16.0000,2.0000,54.0000,64.8000 /
&MESH ID='167' IJK=72,90,54 XB=-36.0000,-21.6000,-16.0000,2.0000,64.8000,75.6000 /
&MESH ID='168' IJK=72,90,54 XB=-36.0000,-21.6000,-16.0000,2.0000,75.6000,86.4000 /
&MESH ID='169' IJK=72,90,54 XB=-36.0000,-21.6000,-16.0000,2.0000,86.4000,97.2000 /
&MESH ID='170' IJK=72,90,54 XB=-36.0000,-21.6000,-16.0000,2.0000,97.2000,108.0000 /
&MESH ID='171' IJK=72,90,54 XB=-36.0000,-21.6000,-16.0000,2.0000,108.0000,118.8000 /
&MESH ID='172' IJK=72,90,54 XB=-36.0000,-21.6000,-16.0000,2.0000,118.8000,129.6000 /
&MESH ID='173' IJK=72,90,54 XB=-36.0000,-21.6000,-16.0000,2.0000,129.6000,140.4000 /
&MESH ID='174' IJK=72,90,54 XB=-36.0000,-21.6000,-16.0000,2.0000,140.4000,151.2000 /
&MESH ID='175' IJK=72,90,54 XB=-36.0000,-21.6000,-16.0000,2.0000,151.2000,162.0000 /
&MESH ID='176' IJK=72,90,54 XB=-36.0000,-21.6000,-16.0000,2.0000,162.0000,172.8000 /
&MESH ID='177' IJK=72,90,54 XB=-36.0000,-21.6000,2.0000,20.0000,0.0000,10.8000 /
&MESH ID='178' IJK=72,90,54 XB=-36.0000,-21.6000,2.0000,20.0000,10.8000,21.6000 /
&MESH ID='179' IJK=72,90,54 XB=-36.0000,-21.6000,2.0000,20.0000,21.6000,32.4000 /
&MESH ID='180' IJK=72,90,54 XB=-36.0000,-21.6000,2.0000,20.0000,32.4000,43.2000 /
&MESH ID='181' IJK=72,90,54 XB=-36.0000,-21.6000,2.0000,20.0000,43.2000,54.0000 /
&MESH ID='182' IJK=72,90,54 XB=-36.0000,-21.6000,2.0000,20.0000,54.0000,64.8000 /
&MESH ID='183' IJK=72,90,54 XB=-36.0000,-21.6000,2.0000,20.0000,64.8000,75.6000 /
&MESH ID='184' IJK=72,90,54 XB=-36.0000,-21.6000,2.0000,20.0000,75.6000,86.4000 /
&MESH ID='185' IJK=72,90,54 XB=-36.0000,-21.6000,2.0000,20.0000,86.4000,97.2000 /
&MESH ID='186' IJK=72,90,54 XB=-36.0000,-21.6000,2.0000,20.0000,97.2000,108.0000 /
&MESH ID='187' IJK=72,90,54 XB=-36.0000,-21.6000,2.0000,20.0000,108.0000,118.8000 /
&MESH ID='188' IJK=72,90,54 XB=-36.0000,-21.6000,2.0000,20.0000,118.8000,129.6000 /
&MESH ID='189' IJK=72,90,54 XB=-36.0000,-21.6000,2.0000,20.0000,129.6000,140.4000 /
&MESH ID='190' IJK=72,90,54 XB=-36.0000,-21.6000,2.0000,20.0000,140.4000,151.2000 /
&MESH ID='191' IJK=72,90,54 XB=-36.0000,-21.6000,2.0000,20.0000,151.2000,162.0000 /
&MESH ID='192' IJK=72,90,54 XB=-36.0000,-21.6000,2.0000,20.0000,162.0000,172.8000 /
&MESH ID='193' IJK=72,90,54 XB=-21.6000,-7.2000,-52.0000,-34.0000,0.0000,10.8000 /
&MESH ID='194' IJK=72,90,54 XB=-21.6000,-7.2000,-52.0000,-34.0000,10.8000,21.6000 /
&MESH ID='195' IJK=72,90,54 XB=-21.6000,-7.2000,-52.0000,-34.0000,21.6000,32.4000 /
&MESH ID='196' IJK=72,90,54 XB=-21.6000,-7.2000,-52.0000,-34.0000,32.4000,43.2000 /
&MESH ID='197' IJK=72,90,54 XB=-21.6000,-7.2000,-52.0000,-34.0000,43.2000,54.0000 /
&MESH ID='198' IJK=72,90,54 XB=-21.6000,-7.2000,-52.0000,-34.0000,54.0000,64.8000 /
&MESH ID='199' IJK=72,90,54 XB=-21.6000,-7.2000,-52.0000,-34.0000,64.8000,75.6000 /
&MESH ID='200' IJK=72,90,54 XB=-21.6000,-7.2000,-52.0000,-34.0000,75.6000,86.4000 /
&MESH ID='201' IJK=72,90,54 XB=-21.6000,-7.2000,-52.0000,-34.0000,86.4000,97.2000 /
&MESH ID='202' IJK=72,90,54 XB=-21.6000,-7.2000,-52.0000,-34.0000,97.2000,108.0000 /
&MESH ID='203' IJK=72,90,54 XB=-21.6000,-7.2000,-52.0000,-34.0000,108.0000,118.8000 /
&MESH ID='204' IJK=72,90,54 XB=-21.6000,-7.2000,-52.0000,-34.0000,118.8000,129.6000 /
&MESH ID='205' IJK=72,90,54 XB=-21.6000,-7.2000,-52.0000,-34.0000,129.6000,140.4000 /
&MESH ID='206' IJK=72,90,54 XB=-21.6000,-7.2000,-52.0000,-34.0000,140.4000,151.2000 /
&MESH ID='207' IJK=72,90,54 XB=-21.6000,-7.2000,-52.0000,-34.0000,151.2000,162.0000 /
&MESH ID='208' IJK=72,90,54 XB=-21.6000,-7.2000,-52.0000,-34.0000,162.0000,172.8000 /
&MESH ID='209' IJK=72,90,54 XB=-21.6000,-7.2000,-34.0000,-16.0000,0.0000,10.8000 /
&MESH ID='210' IJK=72,90,54 XB=-21.6000,-7.2000,-34.0000,-16.0000,10.8000,21.6000 /
&MESH ID='211' IJK=72,90,54 XB=-21.6000,-7.2000,-34.0000,-16.0000,21.6000,32.4000 /
&MESH ID='212' IJK=72,90,54 XB=-21.6000,-7.2000,-34.0000,-16.0000,32.4000,43.2000 /
&MESH ID='213' IJK=72,90,54 XB=-21.6000,-7.2000,-34.0000,-16.0000,43.2000,54.0000 /
&MESH ID='214' IJK=72,90,54 XB=-21.6000,-7.2000,-34.0000,-16.0000,54.0000,64.8000 /
&MESH ID='215' IJK=72,90,54 XB=-21.6000,-7.2000,-34.0000,-16.0000,64.8000,75.6000 /
&MESH ID='216' IJK=72,90,54 XB=-21.6000,-7.2000,-34.0000,-16.0000,75.6000,86.4000 /
&MESH ID='217' IJK=72,90,54 XB=-21.6000,-7.2000,-34.0000,-16.0000,86.4000,97.2000 /
&MESH ID='218' IJK=72,90,54 XB=-21.6000,-7.2000,-34.0000,-16.0000,97.2000,108.0000 /
&MESH ID='219' IJK=72,90,54 XB=-21.6000,-7.2000,-34.0000,-16.0000,108.0000,118.8000 /
&MESH ID='220' IJK=72,90,54 XB=-21.6000,-7.2000,-34.0000,-16.0000,118.8000,129.6000 /
&MESH ID='221' IJK=72,90,54 XB=-21.6000,-7.2000,-34.0000,-16.0000,129.6000,140.4000 /
&MESH ID='222' IJK=72,90,54 XB=-21.6000,-7.2000,-34.0000,-16.0000,140.4000,151.2000 /
&MESH ID='223' IJK=72,90,54 XB=-21.6000,-7.2000,-34.0000,-16.0000,151.2000,162.0000 /
&MESH ID='224' IJK=72,90,54 XB=-21.6000,-7.2000,-34.0000,-16.0000,162.0000,172.8000 /
&MESH ID='225' IJK=72,90,54 XB=-21.6000,-7.2000,-16.0000,2.0000,0.0000,10.8000 /
&MESH ID='226' IJK=72,90,54 XB=-21.6000,-7.2000,-16.0000,2.0000,10.8000,21.6000 /
&MESH ID='227' IJK=72,90,54 XB=-21.6000,-7.2000,-16.0000,2.0000,21.6000,32.4000 /
&MESH ID='228' IJK=72,90,54 XB=-21.6000,-7.2000,-16.0000,2.0000,32.4000,43.2000 /
&MESH ID='229' IJK=72,90,54 XB=-21.6000,-7.2000,-16.0000,2.0000,43.2000,54.0000 /
&MESH ID='230' IJK=72,90,54 XB=-21.6000,-7.2000,-16.0000,2.0000,54.0000,64.8000 /
&MESH ID='231' IJK=72,90,54 XB=-21.6000,-7.2000,-16.0000,2.0000,64.8000,75.6000 /
&MESH ID='232' IJK=72,90,54 XB=-21.6000,-7.2000,-16.0000,2.0000,75.6000,86.4000 /
&MESH ID='233' IJK=72,90,54 XB=-21.6000,-7.2000,-16.0000,2.0000,86.4000,97.2000 /
&MESH ID='234' IJK=72,90,54 XB=-21.6000,-7.2000,-16.0000,2.0000,97.2000,108.0000 /
&MESH ID='235' IJK=72,90,54 XB=-21.6000,-7.2000,-16.0000,2.0000,108.0000,118.8000 /
&MESH ID='236' IJK=72,90,54 XB=-21.6000,-7.2000,-16.0000,2.0000,118.8000,129.6000 /
&MESH ID='237' IJK=72,90,54 XB=-21.6000,-7.2000,-16.0000,2.0000,129.6000,140.4000 /
&MESH ID='238' IJK=72,90,54 XB=-21.6000,-7.2000,-16.0000,2.0000,140.4000,151.2000 /
&MESH ID='239' IJK=72,90,54 XB=-21.6000,-7.2000,-16.0000,2.0000,151.2000,162.0000 /
&MESH ID='240' IJK=72,90,54 XB=-21.6000,-7.2000,-16.0000,2.0000,162.0000,172.8000 /
&MESH ID='241' IJK=72,90,54 XB=-21.6000,-7.2000,2.0000,20.0000,0.0000,10.8000 /
&MESH ID='242' IJK=72,90,54 XB=-21.6000,-7.2000,2.0000,20.0000,10.8000,21.6000 /
&MESH ID='243' IJK=72,90,54 XB=-21.6000,-7.2000,2.0000,20.0000,21.6000,32.4000 /
&MESH ID='244' IJK=72,90,54 XB=-21.6000,-7.2000,2.0000,20.0000,32.4000,43.2000 /
&MESH ID='245' IJK=72,90,54 XB=-21.6000,-7.2000,2.0000,20.0000,43.2000,54.0000 /
&MESH ID='246' IJK=72,90,54 XB=-21.6000,-7.2000,2.0000,20.0000,54.0000,64.8000 /
&MESH ID='247' IJK=72,90,54 XB=-21.6000,-7.2000,2.0000,20.0000,64.8000,75.6000 /
&MESH ID='248' IJK=72,90,54 XB=-21.6000,-7.2000,2.0000,20.0000,75.6000,86.4000 /
&MESH ID='249' IJK=72,90,54 XB=-21.6000,-7.2000,2.0000,20.0000,86.4000,97.2000 /
&MESH ID='250' IJK=72,90,54 XB=-21.6000,-7.2000,2.0000,20.0000,97.2000,108.0000 /
&MESH ID='251' IJK=72,90,54 XB=-21.6000,-7.2000,2.0000,20.0000,108.0000,118.8000 /
&MESH ID='252' IJK=72,90,54 XB=-21.6000,-7.2000,2.0000,20.0000,118.8000,129.6000 /
&MESH ID='253' IJK=72,90,54 XB=-21.6000,-7.2000,2.0000,20.0000,129.6000,140.4000 /
&MESH ID='254' IJK=72,90,54 XB=-21.6000,-7.2000,2.0000,20.0000,140.4000,151.2000 /
&MESH ID='255' IJK=72,90,54 XB=-21.6000,-7.2000,2.0000,20.0000,151.2000,162.0000 /
&MESH ID='256' IJK=72,90,54 XB=-21.6000,-7.2000,2.0000,20.0000,162.0000,172.8000 /
&MESH ID='257' IJK=72,90,54 XB=-7.2000,7.2000,-52.0000,-34.0000,0.0000,10.8000 /
&MESH ID='258' IJK=72,90,54 XB=-7.2000,7.2000,-52.0000,-34.0000,10.8000,21.6000 /
&MESH ID='259' IJK=72,90,54 XB=-7.2000,7.2000,-52.0000,-34.0000,21.6000,32.4000 /
&MESH ID='260' IJK=72,90,54 XB=-7.2000,7.2000,-52.0000,-34.0000,32.4000,43.2000 /
&MESH ID='261' IJK=72,90,54 XB=-7.2000,7.2000,-52.0000,-34.0000,43.2000,54.0000 /
&MESH ID='262' IJK=72,90,54 XB=-7.2000,7.2000,-52.0000,-34.0000,54.0000,64.8000 /
&MESH ID='263' IJK=72,90,54 XB=-7.2000,7.2000,-52.0000,-34.0000,64.8000,75.6000 /
&MESH ID='264' IJK=72,90,54 XB=-7.2000,7.2000,-52.0000,-34.0000,75.6000,86.4000 /
&MESH ID='265' IJK=72,90,54 XB=-7.2000,7.2000,-52.0000,-34.0000,86.4000,97.2000 /
&MESH ID='266' IJK=72,90,54 XB=-7.2000,7.2000,-52.0000,-34.0000,97.2000,108.0000 /
&MESH ID='267' IJK=72,90,54 XB=-7.2000,7.2000,-52.0000,-34.0000,108.0000,118.8000 /
&MESH ID='268' IJK=72,90,54 XB=-7.2000,7.2000,-52.0000,-34.0000,118.8000,129.6000 /
&MESH ID='269' IJK=72,90,54 XB=-7.2000,7.2000,-52.0000,-34.0000,129.6000,140.4000 /
&MESH ID='270' IJK=72,90,54 XB=-7.2000,7.2000,-52.0000,-34.0000,140.4000,151.2000 /
&MESH ID='271' IJK=72,90,54 XB=-7.2000,7.2000,-52.0000,-34.0000,151.2000,162.0000 /
&MESH ID='272' IJK=72,90,54 XB=-7.2000,7.2000,-52.0000,-34.0000,162.0000,172.8000 /
&MESH ID='273' IJK=72,90,54 XB=-7.2000,7.2000,-34.0000,-16.0000,0.0000,10.8000 /
&MESH ID='274' IJK=72,90,54 XB=-7.2000,7.2000,-34.0000,-16.0000,10.8000,21.6000 /
&MESH ID='275' IJK=72,90,54 XB=-7.2000,7.2000,-34.0000,-16.0000,21.6000,32.4000 /
&MESH ID='276' IJK=72,90,54 XB=-7.2000,7.2000,-34.0000,-16.0000,32.4000,43.2000 /
&MESH ID='277' IJK=72,90,54 XB=-7.2000,7.2000,-34.0000,-16.0000,43.2000,54.0000 /
&MESH ID='278' IJK=72,90,54 XB=-7.2000,7.2000,-34.0000,-16.0000,54.0000,64.8000 /
&MESH ID='279' IJK=72,90,54 XB=-7.2000,7.2000,-34.0000,-16.0000,64.8000,75.6000 /
&MESH ID='280' IJK=72,90,54 XB=-7.2000,7.2000,-34.0000,-16.0000,75.6000,86.4000 /
&MESH ID='281' IJK=72,90,54 XB=-7.2000,7.2000,-34.0000,-16.0000,86.4000,97.2000 /
&MESH ID='282' IJK=72,90,54 XB=-7.2000,7.2000,-34.0000,-16.0000,97.2000,108.0000 /
&MESH ID='283' IJK=72,90,54 XB=-7.2000,7.2000,-34.0000,-16.0000,108.0000,118.8000 /
&MESH ID='284' IJK=72,90,54 XB=-7.2000,7.2000,-34.0000,-16.0000,118.8000,129.6000 /
&MESH ID='285' IJK=72,90,54 XB=-7.2000,7.2000,-34.0000,-16.0000,129.6000,140.4000 /
&MESH ID='286' IJK=72,90,54 XB=-7.2000,7.2000,-34.0000,-16.0000,140.4000,151.2000 /
&MESH ID='287' IJK=72,90,54 XB=-7.2000,7.2000,-34.0000,-16.0000,151.2000,162.0000 /
&MESH ID='288' IJK=72,90,54 XB=-7.2000,7.2000,-34.0000,-16.0000,162.0000,172.8000 /
&MESH ID='289' IJK=72,90,54 XB=-7.2000,7.2000,-16.0000,2.0000,0.0000,10.8000 /
&MESH ID='290' IJK=72,90,54 XB=-7.2000,7.2000,-16.0000,2.0000,10.8000,21.6000 /
&MESH ID='291' IJK=72,90,54 XB=-7.2000,7.2000,-16.0000,2.0000,21.6000,32.4000 /
&MESH ID='292' IJK=72,90,54 XB=-7.2000,7.2000,-16.0000,2.0000,32.4000,43.2000 /
&MESH ID='293' IJK=72,90,54 XB=-7.2000,7.2000,-16.0000,2.0000,43.2000,54.0000 /
&MESH ID='294' IJK=72,90,54 XB=-7.2000,7.2000,-16.0000,2.0000,54.0000,64.8000 /
&MESH ID='295' IJK=72,90,54 XB=-7.2000,7.2000,-16.0000,2.0000,64.8000,75.6000 /
&MESH ID='296' IJK=72,90,54 XB=-7.2000,7.2000,-16.0000,2.0000,75.6000,86.4000 /
&MESH ID='297' IJK=72,90,54 XB=-7.2000,7.2000,-16.0000,2.0000,86.4000,97.2000 /
&MESH ID='298' IJK=72,90,54 XB=-7.2000,7.2000,-16.0000,2.0000,97.2000,108.0000 /
&MESH ID='299' IJK=72,90,54 XB=-7.2000,7.2000,-16.0000,2.0000,108.0000,118.8000 /
&MESH ID='300' IJK=72,90,54 XB=-7.2000,7.2000,-16.0000,2.0000,118.8000,129.6000 /
&MESH ID='301' IJK=72,90,54 XB=-7.2000,7.2000,-16.0000,2.0000,129.6000,140.4000 /
&MESH ID='302' IJK=72,90,54 XB=-7.2000,7.2000,-16.0000,2.0000,140.4000,151.2000 /
&MESH ID='303' IJK=72,90,54 XB=-7.2000,7.2000,-16.0000,2.0000,151.2000,162.0000 /
&MESH ID='304' IJK=72,90,54 XB=-7.2000,7.2000,-16.0000,2.0000,162.0000,172.8000 /
&MESH ID='305' IJK=72,90,54 XB=-7.2000,7.2000,2.0000,20.0000,0.0000,10.8000 /
&MESH ID='306' IJK=72,90,54 XB=-7.2000,7.2000,2.0000,20.0000,10.8000,21.6000 /
&MESH ID='307' IJK=72,90,54 XB=-7.2000,7.2000,2.0000,20.0000,21.6000,32.4000 /
&MESH ID='308' IJK=72,90,54 XB=-7.2000,7.2000,2.0000,20.0000,32.4000,43.2000 /
&MESH ID='309' IJK=72,90,54 XB=-7.2000,7.2000,2.0000,20.0000,43.2000,54.0000 /
&MESH ID='310' IJK=72,90,54 XB=-7.2000,7.2000,2.0000,20.0000,54.0000,64.8000 /
&MESH ID='311' IJK=72,90,54 XB=-7.2000,7.2000,2.0000,20.0000,64.8000,75.6000 /
&MESH ID='312' IJK=72,90,54 XB=-7.2000,7.2000,2.0000,20.0000,75.6000,86.4000 /
&MESH ID='313' IJK=72,90,54 XB=-7.2000,7.2000,2.0000,20.0000,86.4000,97.2000 /
&MESH ID='314' IJK=72,90,54 XB=-7.2000,7.2000,2.0000,20.0000,97.2000,108.0000 /
&MESH ID='315' IJK=72,90,54 XB=-7.2000,7.2000,2.0000,20.0000,108.0000,118.8000 /
&MESH ID='316' IJK=72,90,54 XB=-7.2000,7.2000,2.0000,20.0000,118.8000,129.6000 /
&MESH ID='317' IJK=72,90,54 XB=-7.2000,7.2000,2.0000,20.0000,129.6000,140.4000 /
&MESH ID='318' IJK=72,90,54 XB=-7.2000,7.2000,2.0000,20.0000,140.4000,151.2000 /
&MESH ID='319' IJK=72,90,54 XB=-7.2000,7.2000,2.0000,20.0000,151.2000,162.0000 /
&MESH ID='320' IJK=72,90,54 XB=-7.2000,7.2000,2.0000,20.0000,162.0000,172.8000 /
&MESH ID='321' IJK=72,90,54 XB=7.2000,21.6000,-52.0000,-34.0000,0.0000,10.8000 /
&MESH ID='322' IJK=72,90,54 XB=7.2000,21.6000,-52.0000,-34.0000,10.8000,21.6000 /
&MESH ID='323' IJK=72,90,54 XB=7.2000,21.6000,-52.0000,-34.0000,21.6000,32.4000 /
&MESH ID='324' IJK=72,90,54 XB=7.2000,21.6000,-52.0000,-34.0000,32.4000,43.2000 /
&MESH ID='325' IJK=72,90,54 XB=7.2000,21.6000,-52.0000,-34.0000,43.2000,54.0000 /
&MESH ID='326' IJK=72,90,54 XB=7.2000,21.6000,-52.0000,-34.0000,54.0000,64.8000 /
&MESH ID='327' IJK=72,90,54 XB=7.2000,21.6000,-52.0000,-34.0000,64.8000,75.6000 /
&MESH ID='328' IJK=72,90,54 XB=7.2000,21.6000,-52.0000,-34.0000,75.6000,86.4000 /
&MESH ID='329' IJK=72,90,54 XB=7.2000,21.6000,-52.0000,-34.0000,86.4000,97.2000 /
&MESH ID='330' IJK=72,90,54 XB=7.2000,21.6000,-52.0000,-34.0000,97.2000,108.0000 /
&MESH ID='331' IJK=72,90,54 XB=7.2000,21.6000,-52.0000,-34.0000,108.0000,118.8000 /
&MESH ID='332' IJK=72,90,54 XB=7.2000,21.6000,-52.0000,-34.0000,118.8000,129.6000 /
&MESH ID='333' IJK=72,90,54 XB=7.2000,21.6000,-52.0000,-34.0000,129.6000,140.4000 /
&MESH ID='334' IJK=72,90,54 XB=7.2000,21.6000,-52.0000,-34.0000,140.4000,151.2000 /
&MESH ID='335' IJK=72,90,54 XB=7.2000,21.6000,-52.0000,-34.0000,151.2000,162.0000 /
&MESH ID='336' IJK=72,90,54 XB=7.2000,21.6000,-52.0000,-34.0000,162.0000,172.8000 /
&MESH ID='337' IJK=72,90,54 XB=7.2000,21.6000,-34.0000,-16.0000,0.0000,10.8000 /
&MESH ID='338' IJK=72,90,54 XB=7.2000,21.6000,-34.0000,-16.0000,10.8000,21.6000 /
&MESH ID='339' IJK=72,90,54 XB=7.2000,21.6000,-34.0000,-16.0000,21.6000,32.4000 /
&MESH ID='340' IJK=72,90,54 XB=7.2000,21.6000,-34.0000,-16.0000,32.4000,43.2000 /
&MESH ID='341' IJK=72,90,54 XB=7.2000,21.6000,-34.0000,-16.0000,43.2000,54.0000 /
&MESH ID='342' IJK=72,90,54 XB=7.2000,21.6000,-34.0000,-16.0000,54.0000,64.8000 /
&MESH ID='343' IJK=72,90,54 XB=7.2000,21.6000,-34.0000,-16.0000,64.8000,75.6000 /
&MESH ID='344' IJK=72,90,54 XB=7.2000,21.6000,-34.0000,-16.0000,75.6000,86.4000 /
&MESH ID='345' IJK=72,90,54 XB=7.2000,21.6000,-34.0000,-16.0000,86.4000,97.2000 /
&MESH ID='346' IJK=72,90,54 XB=7.2000,21.6000,-34.0000,-16.0000,97.2000,108.0000 /
&MESH ID='347' IJK=72,90,54 XB=7.2000,21.6000,-34.0000,-16.0000,108.0000,118.8000 /
&MESH ID='348' IJK=72,90,54 XB=7.2000,21.6000,-34.0000,-16.0000,118.8000,129.6000 /
&MESH ID='349' IJK=72,90,54 XB=7.2000,21.6000,-34.0000,-16.0000,129.6000,140.4000 /
&MESH ID='350' IJK=72,90,54 XB=7.2000,21.6000,-34.0000,-16.0000,140.4000,151.2000 /
&MESH ID='351' IJK=72,90,54 XB=7.2000,21.6000,-34.0000,-16.0000,151.2000,162.0000 /
&MESH ID='352' IJK=72,90,54 XB=7.2000,21.6000,-34.0000,-16.0000,162.0000,172.8000 /
&MESH ID='353' IJK=72,90,54 XB=7.2000,21.6000,-16.0000,2.0000,0.0000,10.8000 /
&MESH ID='354' IJK=72,90,54 XB=7.2000,21.6000,-16.0000,2.0000,10.8000,21.6000 /